REMARK  Name = 
REMARK  11 active torsions:
REMARK  status: ('A' for Active; 'I' for Inactive)
REMARK    1  A    between atoms: C01_1  and  C43_43
REMARK    2  A    between atoms: C04_4  and  C05_5
REMARK    3  A    between atoms: C05_5  and  C06_6
REMARK    4  A    between atoms: C06_6  and  C07_7
REMARK    5  A    between atoms: C07_7  and  C08_8
REMARK    6  A    between atoms: C08_8  and  N09_9
REMARK    7  A    between atoms: C17_17  and  N18_18
REMARK    8  A    between atoms: C43_43  and  C44_44
REMARK    9  A    between atoms: C44_44  and  C45_45
REMARK   10  A    between atoms: C45_45  and  C46_46
REMARK   11  A    between atoms: C46_46  and  N47_47
REMARK                            x       y       z     vdW  Elec       q    Type
REMARK                         _______ _______ _______ _____ _____    ______ ____
ROOT
ATOM      1  C01 DUU B 201      -4.906   3.440 -13.898  0.00  0.00    +0.159 C 
ATOM      2  C02 DUU B 201      -6.455   3.429 -13.837  0.00  0.00    +0.234 C 
ATOM      3  N03 DUU B 201      -7.118   4.760 -13.668  0.00  0.00    -0.302 N 
ATOM      4  C04 DUU B 201      -8.550   4.994 -13.571  0.00  0.00    +0.159 C 
ATOM      5  C10 DUU B 201      -9.052   5.689 -14.848  0.00  0.00    +0.233 C 
ATOM      6  O11 DUU B 201      -8.878   6.851 -15.060  0.00  0.00    -0.274 OA
ATOM      7  N12 DUU B 201      -9.751   4.824 -15.822  0.00  0.00    -0.314 N 
ATOM      8  C13 DUU B 201     -10.257   5.409 -17.112  0.00  0.00    +0.104 C 
ATOM      9  C14 DUU B 201      -9.272   4.978 -18.245  0.00  0.00    +0.019 C 
ATOM     10  C15 DUU B 201      -7.808   5.361 -17.791  0.00  0.00    +0.004 C 
ATOM     11  C16 DUU B 201      -6.937   5.731 -18.996  0.00  0.00    +0.034 C 
ATOM     12  C17 DUU B 201      -5.567   6.234 -18.585  0.00  0.00    +0.168 C 
ATOM     13  C22 DUU B 201      -5.512   7.769 -18.510  0.00  0.00    +0.235 C 
ATOM     14  O23 DUU B 201      -5.781   8.340 -17.493  0.00  0.00    -0.274 OA
ATOM     15  N24 DUU B 201      -5.090   8.501 -19.705  0.00  0.00    -0.314 N 
ATOM     16  C25 DUU B 201      -5.019   9.957 -19.678  0.00  0.00    +0.104 C 
ATOM     17  C26 DUU B 201      -4.551  10.437 -21.089  0.00  0.00    +0.028 C 
ATOM     18  C27 DUU B 201      -3.047  10.032 -21.364  0.00  0.00    +0.097 C 
ATOM     19  C28 DUU B 201      -2.173  10.401 -20.107  0.00  0.00    +0.213 C 
ATOM     20  O29 DUU B 201      -2.276  11.433 -19.508  0.00  0.00    -0.276 OA
ATOM     21  N30 DUU B 201      -1.211   9.390 -19.671  0.00  0.00    -0.311 N 
ATOM     22  C31 DUU B 201      -0.348   9.611 -18.495  0.00  0.00    +0.139 C 
ATOM     23  C32 DUU B 201      -1.027   8.852 -17.305  0.00  0.00    -0.030 A 
ATOM     24  C33 DUU B 201      -2.241   9.368 -16.822  0.00  0.00    +0.005 A 
ATOM     25  C34 DUU B 201      -2.879   8.725 -15.762  0.00  0.00    +0.004 A 
ATOM     26  C35 DUU B 201      -2.328   7.575 -15.192  0.00  0.00    -0.039 A 
ATOM     27  C36 DUU B 201      -1.118   7.049 -15.687  0.00  0.00    +0.004 A 
ATOM     28  C37 DUU B 201      -0.475   7.691 -16.753  0.00  0.00    +0.005 A 
ATOM     29  C38 DUU B 201      -3.101   6.920 -14.026  0.00  0.00    +0.130 C 
ATOM     30  C39 DUU B 201      -3.719   5.583 -14.523  0.00  0.00    +0.218 C 
ATOM     31  O40 DUU B 201      -3.699   5.288 -15.696  0.00  0.00    -0.275 OA
ATOM     32  N41 DUU B 201      -4.340   4.708 -13.494  0.00  0.00    -0.304 N 
ATOM     33  O42 DUU B 201      -7.054   2.401 -13.918  0.00  0.00    -0.274 OA
ATOM     34 H031 DUU B 201      -6.606   5.449 -13.624  0.00  0.00    +0.150 HD
ATOM     35 H121 DUU B 201      -9.868   3.989 -15.652  0.00  0.00    +0.149 HD
ATOM     36 H241 DUU B 201      -4.883   8.073 -20.421  0.00  0.00    +0.149 HD
ATOM     37 H301 DUU B 201      -1.147   8.653 -20.109  0.00  0.00    +0.149 HD
ATOM     38 H411 DUU B 201      -4.361   4.952 -12.670  0.00  0.00    +0.149 HD
ENDROOT
BRANCH  12  39
ATOM     39  N18 DUU B 201      -4.733   5.709 -19.667  0.00  0.00    -0.345 N 
ATOM     40  C19 DUU B 201      -3.295   5.506 -19.561  0.00  0.00    +0.188 C 
ATOM     41  N20 DUU B 201      -2.668   5.782 -18.490  0.00  0.00    -0.269 NA
ATOM     42  N21 DUU B 201      -2.579   4.983 -20.715  0.00  0.00    -0.370 N 
ATOM     43 H181 DUU B 201      -5.115   5.507 -20.410  0.00  0.00    +0.163 HD
ATOM     44 H201 DUU B 201      -3.099   6.109 -17.787  0.00  0.00    +0.190 HD
ATOM     45 H212 DUU B 201      -1.728   4.855 -20.670  0.00  0.00    +0.159 HD
ATOM     46 H212 DUU B 201      -3.001   4.793 -21.438  0.00  0.00    +0.159 HD
ENDBRANCH  12  39
BRANCH   4  47
ATOM     47  C05 DUU B 201      -8.706   5.850 -12.306  0.00  0.00    +0.032 C 
BRANCH  47  48
ATOM     48  C06 DUU B 201      -8.056   5.103 -11.085  0.00  0.00    +0.003 C 
BRANCH  48  49
ATOM     49  C07 DUU B 201      -8.849   3.810 -10.651  0.00  0.00    +0.015 C 
BRANCH  49  50
ATOM     50  C08 DUU B 201      -8.346   3.398  -9.252  0.00  0.00    +0.077 C 
BRANCH  50  51
ATOM     51  N09 DUU B 201      -8.860   2.119  -8.796  0.00  0.00    -0.330 NA
ATOM     52  H1  DUU B 201      -8.507   1.474  -9.297  0.00  0.00    +0.118 HD
ATOM     53  H2  DUU B 201      -8.623   1.990  -7.947  0.00  0.00    +0.118 HD
ENDBRANCH  50  51
ENDBRANCH  49  50
ENDBRANCH  48  49
ENDBRANCH  47  48
ENDBRANCH   4  47
BRANCH   1  54
ATOM     54  C43 DUU B 201      -4.466   2.303 -12.958  0.00  0.00    +0.032 C 
BRANCH  54  55
ATOM     55  C44 DUU B 201      -3.027   2.416 -12.389  0.00  0.00    +0.003 C 
BRANCH  55  56
ATOM     56  C45 DUU B 201      -2.983   1.581 -11.053  0.00  0.00    +0.015 C 
BRANCH  56  57
ATOM     57  C46 DUU B 201      -1.482   1.274 -10.755  0.00  0.00    +0.077 C 
BRANCH  57  58
ATOM     58  N47 DUU B 201      -1.348   0.659  -9.437  0.00  0.00    -0.330 NA
ATOM     59  H4  DUU B 201      -0.631   0.994  -9.032  0.00  0.00    +0.118 HD
ATOM     60 H471 DUU B 201      -1.230  -0.217  -9.558  0.00  0.00    +0.118 HD
ENDBRANCH  57  58
ENDBRANCH  56  57
ENDBRANCH  55  56
ENDBRANCH  54  55
ENDBRANCH   1  54
TORSDOF 11
