REMARK  Name = 
REMARK  32 active torsions:
REMARK  status: ('A' for Active; 'I' for Inactive)
REMARK    1  A    between atoms: N_1  and  CA_2
REMARK    2  A    between atoms: CA_2  and  C_3
REMARK    3  A    between atoms: CA_2  and  CB_5
REMARK    4  A    between atoms: C_3  and  O_4
REMARK    5  A    between atoms: CB_5  and  CG_6
REMARK    6  A    between atoms: CG_6  and  SE_8
REMARK    7  A    between atoms: CE_7  and  SE_8
REMARK    8  A    between atoms: N_9  and  CA_10
REMARK    9  A    between atoms: CA_10  and  C_11
REMARK   10  A    between atoms: CA_10  and  CB_13
REMARK   11  A    between atoms: CB_13  and  CG_14
REMARK   12  A    between atoms: CG_14  and  CD_15
REMARK   13  A    between atoms: CD_15  and  NE_16
REMARK   14  A    between atoms: N_20  and  CA_21
REMARK   15  A    between atoms: CA_21  and  C_22
REMARK   16  A    between atoms: CA_21  and  CB_24
REMARK   17  A    between atoms: CB_24  and  CG2_25
REMARK   18  A    between atoms: CB_24  and  OG1_26
REMARK   19  A    between atoms: N_27  and  CA_28
REMARK   20  A    between atoms: CA_28  and  C_29
REMARK   21  A    between atoms: N_31  and  CA_32
REMARK   22  A    between atoms: CA_32  and  C_33
REMARK   23  A    between atoms: CA_32  and  CB_35
REMARK   24  A    between atoms: CB_35  and  CG_36
REMARK   25  A    between atoms: N_39  and  CA_40
REMARK   26  A    between atoms: CA_40  and  C_41
REMARK   27  A    between atoms: CA_40  and  CB_43
REMARK   28  A    between atoms: N_44  and  CA_45
REMARK   29  A    between atoms: CA_45  and  C_46
REMARK   30  A    between atoms: CA_45  and  CB_48
REMARK   31  A    between atoms: C_46  and  O_47
REMARK   32  A    between atoms: CB_48  and  CG_49
REMARK                            x       y       z     vdW  Elec       q    Type
REMARK                         _______ _______ _______ _____ _____    ______ ____
ROOT
ATOM      1  C   THR G   3      20.413  24.681  31.386  0.00  0.00    +0.000 C 
ATOM      2  O   THR G   3      20.437  23.446  31.367  0.00  0.00    +0.000 OA
ATOM      3  N   GLY G   4      21.491  25.430  31.627  0.00  0.00    +0.000 N 
ATOM      4  H   GLY G   4      21.410  26.409  31.563  0.00  0.00    +0.000 HD
ENDROOT
BRANCH   1   5
ATOM      5  CA  THR G   3      19.104  25.437  31.115  0.00  0.00    +0.000 C 
BRANCH   5   8
ATOM      6  C   ARG G   2      18.101  24.756  28.968  0.00  0.00    +0.000 C 
ATOM      7  O   ARG G   2      18.528  25.725  28.339  0.00  0.00    +0.000 OA
ATOM      8  N   THR G   3      18.223  24.614  30.284  0.00  0.00    +0.000 N 
ATOM      9  H   THR G   3      17.690  23.914  30.726  0.00  0.00    +0.000 HD
BRANCH   6  10
ATOM     10  CA  ARG G   2      17.371  23.622  28.258  0.00  0.00    +0.000 C 
BRANCH  10  12
ATOM     11  C   MSE G   1      17.963  21.662  29.588  0.00  0.00    +0.000 C 
ATOM     12  N   ARG G   2      17.032  22.522  29.172  0.00  0.00    +0.000 NA
BRANCH  11  13
ATOM     13  O   MSE G   1      19.154  21.755  29.265  0.00  0.00    +0.000 OA
ATOM     14  H   MSE G   1      19.775  21.128  29.580  0.00  0.00    +0.000 HD
ENDBRANCH  11  13
BRANCH  11  15
ATOM     15  CA  MSE G   1      17.503  20.511  30.490  0.00  0.00    +0.000 C 
BRANCH  15  16
ATOM     16  N   MSE G   1      16.199  20.735  31.187  0.00  0.00    +0.000 NA
ATOM     17  H   MSE G   1      16.250  21.593  31.736  0.00  0.00    +0.000 HD
ATOM     18  H   MSE G   1      16.004  19.947  31.805  0.00  0.00    +0.000 HD
ENDBRANCH  15  16
BRANCH  15  19
ATOM     19  CB  MSE G   1      17.450  19.233  29.662  0.00  0.00    +0.000 C 
BRANCH  19  20
ATOM     20  CG  MSE G   1      17.823  17.990  30.421  0.00  0.00    +0.000 C 
BRANCH  20  22
ATOM     21  CE  MSE G   1      20.368  17.248  29.074  0.00  0.00    +0.000 C 
ATOM     22 SE   MSE G   1      18.506  16.643  29.195  0.00  0.00    +0.000 Se
ENDBRANCH  20  22
ENDBRANCH  19  20
ENDBRANCH  15  19
ENDBRANCH  11  15
ENDBRANCH  10  12
BRANCH  10  23
ATOM     23  CB  ARG G   2      16.143  24.126  27.488  0.00  0.00    +0.000 C 
BRANCH  23  24
ATOM     24  CG  ARG G   2      15.621  23.123  26.474  0.00  0.00    +0.000 C 
BRANCH  24  25
ATOM     25  CD  ARG G   2      14.325  22.500  26.941  0.00  0.00    +0.000 C 
BRANCH  25  26
ATOM     26  NE  ARG G   2      13.186  23.016  26.188  0.00  0.00    +0.000 NA
ATOM     27  CZ  ARG G   2      11.923  22.998  26.608  0.00  0.00    +0.000 C 
ATOM     28  NH1 ARG G   2      11.606  22.516  27.808  0.00  0.00    +0.000 N 
ATOM     29  NH2 ARG G   2      10.970  23.482  25.821  0.00  0.00    +0.000 N 
ATOM     30  H   ARG G   2      10.667  22.510  28.104  0.00  0.00    +0.000 HD
ATOM     31  H   ARG G   2      12.311  22.166  28.400  0.00  0.00    +0.000 HD
ATOM     32  H   ARG G   2      11.199  23.839  24.933  0.00  0.00    +0.000 HD
ATOM     33  H   ARG G   2      10.034  23.483  26.125  0.00  0.00    +0.000 HD
ENDBRANCH  25  26
ENDBRANCH  24  25
ENDBRANCH  23  24
ENDBRANCH  10  23
ENDBRANCH   6  10
ENDBRANCH   5   8
BRANCH   5  34
ATOM     34  CB  THR G   3      18.422  25.867  32.463  0.00  0.00    +0.000 C 
ATOM     35  CG2 THR G   3      17.192  25.010  32.786  0.00  0.00    +0.000 C 
BRANCH  34  36
ATOM     36  OG1 THR G   3      19.353  25.741  33.544  0.00  0.00    +0.000 OA
ATOM     37  H   THR G   3      19.621  24.813  33.633  0.00  0.00    +0.000 HD
ENDBRANCH  34  36
ENDBRANCH   5  34
ENDBRANCH   1   5
BRANCH   3  38
ATOM     38  CA  GLY G   4      22.788  24.854  31.983  0.00  0.00    +0.000 C 
BRANCH  38  39
ATOM     39  C   GLY G   4      22.871  24.460  33.448  0.00  0.00    +0.000 C 
ATOM     40  O   GLY G   4      22.040  24.885  34.260  0.00  0.00    +0.000 OA
ATOM     41  N   ASN G   5      23.874  23.640  33.778  0.00  0.00    +0.000 N 
ATOM     42  H   ASN G   5      24.439  23.280  33.057  0.00  0.00    +0.000 HD
BRANCH  41  43
ATOM     43  CA  ASN G   5      24.177  23.248  35.166  0.00  0.00    +0.000 C 
BRANCH  43  44
ATOM     44  C   ASN G   5      24.720  24.411  36.016  0.00  0.00    +0.000 C 
ATOM     45  O   ASN G   5      25.036  24.227  37.195  0.00  0.00    +0.000 OA
ATOM     46  N   ALA G   6      24.851  25.587  35.405  0.00  0.00    +0.000 N 
ATOM     47  H   ALA G   6      24.527  25.672  34.479  0.00  0.00    +0.000 HD
BRANCH  46  48
ATOM     48  CA  ALA G   6      25.451  26.758  36.040  0.00  0.00    +0.000 C 
ATOM     49  CB  ALA G   6      26.788  27.084  35.384  0.00  0.00    +0.000 C 
BRANCH  48  50
ATOM     50  C   ALA G   6      24.517  27.957  35.947  0.00  0.00    +0.000 C 
ATOM     51  O   ALA G   6      23.776  28.102  34.965  0.00  0.00    +0.000 OA
ATOM     52  N   ASN G   7      24.552  28.806  36.974  0.00  0.00    +0.000 N 
ATOM     53  H   ASN G   7      25.142  28.605  37.736  0.00  0.00    +0.000 HD
BRANCH  52  54
ATOM     54  CA  ASN G   7      23.745  30.027  37.009  0.00  0.00    +0.000 C 
BRANCH  54  55
ATOM     55  C   ASN G   7      24.526  31.204  37.604  0.00  0.00    +0.000 C 
ATOM     56  OXT ASN G   7      24.276  32.357  37.243  0.00  0.00    +0.000 OA
BRANCH  55  57
ATOM     57  O   ASN G   7      25.428  31.033  38.440  0.00  0.00    +0.000 OA
ATOM     58  H   ASN G   7      25.639  30.168  38.732  0.00  0.00    +0.000 HD
ENDBRANCH  55  57
ENDBRANCH  54  55
BRANCH  54  59
ATOM     59  CB  ASN G   7      22.430  29.797  37.769  0.00  0.00    +0.000 C 
BRANCH  59  60
ATOM     60  CG  ASN G   7      21.374  30.886  37.488  0.00  0.00    +0.000 C 
ATOM     61  ND2 ASN G   7      21.148  31.749  38.481  0.00  0.00    +0.000 N 
ATOM     62  OD1 ASN G   7      20.757  30.932  36.406  0.00  0.00    +0.000 OA
ATOM     63  H   ASN G   7      20.486  32.469  38.367  0.00  0.00    +0.000 HD
ATOM     64  H   ASN G   7      21.643  31.666  39.328  0.00  0.00    +0.000 HD
ENDBRANCH  59  60
ENDBRANCH  54  59
ENDBRANCH  52  54
ENDBRANCH  48  50
ENDBRANCH  46  48
ENDBRANCH  43  44
BRANCH  43  65
ATOM     65  CB  ASN G   5      25.212  22.109  35.206  0.00  0.00    +0.000 C 
BRANCH  65  66
ATOM     66  CG  ASN G   5      24.898  20.968  34.248  0.00  0.00    +0.000 C 
ATOM     67  ND2 ASN G   5      25.906  20.150  33.970  0.00  0.00    +0.000 N 
ATOM     68  OD1 ASN G   5      23.772  20.817  33.770  0.00  0.00    +0.000 OA
ATOM     69  H   ASN G   5      25.770  19.392  33.357  0.00  0.00    +0.000 HD
ATOM     70  H   ASN G   5      26.790  20.302  34.377  0.00  0.00    +0.000 HD
ENDBRANCH  65  66
ENDBRANCH  43  65
ENDBRANCH  41  43
ENDBRANCH  38  39
ENDBRANCH   3  38
TORSDOF 29
